/*--------------------------------*- C++ -*----------------------------------*\
| =========                 |                                                 |
| \\      /  F ield         | OpenFOAM: The Open Source CFD Toolbox           |
|  \\    /   O peration     | Version:  2.1.x                                 |
|   \\  /    A nd           | Web:      www.OpenFOAM.org                      |
|    \\/     M anipulation  |                                                 |
\*---------------------------------------------------------------------------*/
FoamFile
{
    version     2.0;
    format      ascii;
    class       polyBoundaryMesh;
    location    "constant/polyMesh";
    object      boundary;
}
// * * * * * * * * * * * * * * * * * * * * * * * * * * * * * * * * * * * * * //

4
(
    top
    {
        type            patch;
        nFaces          400;
        startFace       199;
    }
    outlet
    {
        type            patch;
        nFaces          1;
        startFace       599;
    }
    inlet
    {
        type            patch;
        nFaces          1;
        startFace       600;
    }
    frontAndBack
    {
        type            empty;
        nFaces          400;
        startFace       601;
    }
)

// ************************************************************************* //
